gfp_ligand.pdb
 OpenBabel12092120223D

 22 23  0  0  1  0  0  0  0  0999 V2000
   25.1320   26.5290   37.0520 C   0  0  1  0  0  0  0  0  0  0  0  0
   27.3000   28.1100   39.3930 C   0  0  0  0  0  0  0  0  0  0  0  0
   24.0050   26.6660   39.8150 C   0  0  0  0  0  0  0  0  0  0  0  0
   26.0830   26.0410   35.8960 C   0  0  1  0  0  0  0  0  0  0  0  0
   28.4390   28.7890   39.8500 C   0  0  0  0  0  0  0  0  0  0  0  0
   25.3340   25.3730   34.7770 C   0  0  0  0  0  0  0  0  0  0  0  0
   29.5120   29.2680   39.0560 C   0  0  0  0  0  0  0  0  0  0  0  0
   26.7900   27.1690   35.3580 O   0  0  0  0  0  0  0  0  0  0  0  0
   29.5880   29.0280   37.6710 C   0  0  0  0  0  0  0  0  0  0  0  0
   30.6320   30.0130   39.7370 C   0  0  0  0  0  0  0  0  0  0  0  0
   30.7400   29.4780   36.9530 C   0  0  0  0  0  0  0  0  0  0  0  0
   31.7660   30.4470   39.0260 C   0  0  0  0  0  0  0  0  0  0  0  0
   31.8530   30.2180   37.6620 C   0  0  0  0  0  0  0  0  0  0  0  0
   32.8600   30.6730   36.9990 O   0  0  0  0  0  0  0  0  0  0  0  0
   25.7650   27.0440   38.1130 C   0  0  0  0  0  0  0  0  0  0  0  0
   24.1760   27.5540   36.5340 N   0  0  0  0  0  0  0  0  0  0  0  0
   26.2000   27.7640   40.2230 C   0  0  0  0  0  0  0  0  0  0  0  0
   27.0210   27.6970   38.0750 N   0  0  0  0  0  0  0  0  0  0  0  0
   26.0970   27.9300   41.3580 O   0  0  0  0  0  0  0  0  0  0  0  0
   23.8070   25.2430   40.2770 C   0  0  0  0  0  0  0  0  0  0  0  0
   25.3400   27.0850   39.4030 N   0  0  0  0  0  0  0  0  0  0  0  0
   22.8820   24.9760   41.0480 O   0  0  0  0  0  0  0  0  0  0  0  0
  1  4  1  0  0  0  0
  1 15  1  0  0  0  0
  1 16  1  6  0  0  0
  2  5  2  0  0  0  0
  2 17  1  0  0  0  0
  2 18  1  0  0  0  0
  3 20  1  0  0  0  0
  3 21  1  0  0  0  0
  4  6  1  6  0  0  0
  4  8  1  0  0  0  0
  5  7  1  0  0  0  0
  7  9  2  0  0  0  0
  7 10  1  0  0  0  0
  9 11  1  0  0  0  0
 10 12  2  0  0  0  0
 11 13  2  0  0  0  0
 12 13  1  0  0  0  0
 13 14  1  0  0  0  0
 15 18  2  0  0  0  0
 15 21  1  0  0  0  0
 17 19  2  0  0  0  0
 17 21  1  0  0  0  0
 20 22  2  0  0  0  0
M  END
$$$$
